@<TRIPOS>MOLECULE
****
31 31 1 0 0
SMALL
USER_CHARGES


@<TRIPOS>ATOM
      1 C           0.8985   -3.3793    0.0001 C.3       1     ****    0.0000
      2 C           1.6976   -2.0680   -0.0000 C.3       1     ****    0.0000
      3 C           0.9204   -0.7587   -0.0000 C.ar      1     ****    0.0000
      4 C          -0.4229   -0.7377   -0.0000 C.ar      1     ****    0.0000
      5 C          -1.1386    0.3999   -0.0000 C.ar      1     ****    0.0000
      6 C          -0.4638    1.5687    0.0000 C.ar      1     ****    0.0000
      7 C           0.8859    1.5978    0.0001 C.ar      1     ****    0.0000
      8 C           1.5592    0.4279    0.0000 C.ar      1     ****    0.0000
      9 N           2.8293    0.4386    0.0001 N.3       1     ****    0.0000
     10 C           1.6743    2.8982    0.0001 C.3       1     ****    0.0000
     11 N          -1.1390    2.6443    0.0001 N.3       1     ****    0.0000
     12 C          -2.6621    0.3715   -0.0001 C.3       1     ****    0.0000
     13 C          -3.3600   -0.9967   -0.0002 C.3       1     ****    0.0000
     14 H           1.5859   -4.2571    0.0001 H         1     ****    0.0000
     15 H           0.2591   -3.4736    0.9075 H         1     ****    0.0000
     16 H           0.2590   -3.4736   -0.9073 H         1     ****    0.0000
     17 H           2.3544   -2.0798   -0.9040 H         1     ****    0.0000
     18 H           2.3545   -2.0797    0.9038 H         1     ****    0.0000
     19 H          -0.9588   -1.6942   -0.0001 H         1     ****    0.0000
     20 H           3.3859   -0.4492    0.0000 H         1     ****    0.0000
     21 H           3.3739    1.3337    0.0001 H         1     ****    0.0000
     22 H           1.0747    3.8300   -0.0000 H         1     ****    0.0000
     23 H           2.3188    2.9589    0.9068 H         1     ****    0.0000
     24 H           2.3190    2.9589   -0.9064 H         1     ****    0.0000
     25 H          -0.7023    3.5944    0.0001 H         1     ****    0.0000
     26 H          -2.1866    2.6327    0.0001 H         1     ****    0.0000
     27 H          -3.0183    0.9224    0.9046 H         1     ****    0.0000
     28 H          -3.0182    0.9226   -0.9046 H         1     ****    0.0000
     29 H          -4.4679   -0.8713   -0.0002 H         1     ****    0.0000
     30 H          -3.1059   -1.5907   -0.9078 H         1     ****    0.0000
     31 H          -3.1059   -1.5908    0.9074 H         1     ****    0.0000
@<TRIPOS>BOND
     1     1     2     1
     2     1    14     1
     3     1    15     1
     4     1    16     1
     5     2     3     1
     6     2    17     1
     7     2    18     1
     8     3     4     1
     9     3     8     2
    10     4     5     2
    11     4    19     1
    12     5     6     1
    13     5    12     1
    14     6     7     2
    15     6    11     1
    16     7     8     1
    17     7    10     1
    18     8     9     1
    19     9    20     1
    20     9    21     1
    21    10    22     1
    22    10    23     1
    23    10    24     1
    24    11    25     1
    25    11    26     1
    26    12    13     1
    27    12    27     1
    28    12    28     1
    29    13    29     1
    30    13    30     1
    31    13    31     1
