@<TRIPOS>MOLECULE
****
43 46 1 0 0
SMALL
USER_CHARGES


@<TRIPOS>ATOM
      1 C           4.6398    5.4559   -0.3564 C.3       1     ****    0.0000
      2 C           3.3180    5.8550   -0.5751 C.3       1     ****    0.0000
      3 O           4.0147    6.4043    0.6833 O.3       1     ****    0.0000
      4 C           2.1767    4.9381   -0.1481 C.3       1     ****    0.0000
      5 O           1.6594    4.2788   -1.2856 O.3       1     ****    0.0000
      6 C           0.6074    3.4074   -1.1354 C.ar      1     ****    0.0000
      7 C           0.1583    2.7449   -2.2192 C.ar      1     ****    0.0000
      8 C          -0.8597    1.8733   -2.1645 C.ar      1     ****    0.0000
      9 C          -1.4845    1.6208   -1.0030 C.ar      1     ****    0.0000
     10 C          -1.0468    2.2660    0.0907 C.ar      1     ****    0.0000
     11 C          -0.0266    3.1361    0.0233 C.ar      1     ****    0.0000
     12 C          -2.6270    0.6333   -0.9274 C.3       1     ****    0.0000
     13 C          -2.0808   -0.7516   -0.6631 C.ar      1     ****    0.0000
     14 C          -1.7586   -1.5774   -1.6718 C.ar      1     ****    0.0000
     15 C          -1.2673   -2.8009   -1.4250 C.ar      1     ****    0.0000
     16 C          -1.0686   -3.2665   -0.1764 C.ar      1     ****    0.0000
     17 C          -1.3941   -2.4228    0.8238 C.ar      1     ****    0.0000
     18 C          -1.8868   -1.1962    0.5894 C.ar      1     ****    0.0000
     19 O          -0.5601   -4.5336   -0.0196 O.3       1     ****    0.0000
     20 C          -0.3496   -5.0358    1.2842 C.3       1     ****    0.0000
     21 C           0.2522   -6.4341    1.1924 C.3       1     ****    0.0000
     22 C          -0.5628   -7.5494    1.4073 C.3       1     ****    0.0000
     23 O           0.2798   -7.0591    2.5992 O.3       1     ****    0.0000
     24 H           5.4545    5.9837   -0.8509 H         1     ****    0.0000
     25 H           4.8699    4.5135    0.1376 H         1     ****    0.0000
     26 H           3.0879    6.6662   -1.2733 H         1     ****    0.0000
     27 H           2.5260    4.1742    0.5840 H         1     ****    0.0000
     28 H           1.3797    5.5700    0.3085 H         1     ****    0.0000
     29 H           0.6481    2.9252   -3.1919 H         1     ****    0.0000
     30 H          -1.1812    1.3587   -3.0851 H         1     ****    0.0000
     31 H          -1.5304    2.0773    1.0638 H         1     ****    0.0000
     32 H           0.2740    3.6237    0.9640 H         1     ****    0.0000
     33 H          -3.3475    0.9271   -0.1299 H         1     ****    0.0000
     34 H          -3.2180    0.6481   -1.8718 H         1     ****    0.0000
     35 H          -1.8953   -1.2502   -2.7158 H         1     ****    0.0000
     36 H          -1.0143   -3.4512   -2.2802 H         1     ****    0.0000
     37 H          -1.2640   -2.7133    1.8782 H         1     ****    0.0000
     38 H          -2.1336   -0.5426    1.4429 H         1     ****    0.0000
     39 H           0.3776   -4.3824    1.8200 H         1     ****    0.0000
     40 H          -1.3227   -5.0510    1.8265 H         1     ****    0.0000
     41 H           1.2264   -6.5402    0.7044 H         1     ****    0.0000
     42 H          -0.2097   -8.5412    1.1269 H         1     ****    0.0000
     43 H          -1.6145   -7.4379    1.6652 H         1     ****    0.0000
@<TRIPOS>BOND
     1     1     2     1
     2     1     3     1
     3     1    24     1
     4     1    25     1
     5     2     3     1
     6     2     4     1
     7     2    26     1
     8     4     5     1
     9     4    27     1
    10     4    28     1
    11     5     6     1
    12     6     7     1
    13     6    11     2
    14     7     8     2
    15     7    29     1
    16     8     9     1
    17     8    30     1
    18     9    10     2
    19     9    12     1
    20    10    11     1
    21    10    31     1
    22    11    32     1
    23    12    13     1
    24    12    33     1
    25    12    34     1
    26    13    14     1
    27    13    18     2
    28    14    15     2
    29    14    35     1
    30    15    16     1
    31    15    36     1
    32    16    17     2
    33    16    19     1
    34    17    18     1
    35    17    37     1
    36    18    38     1
    37    19    20     1
    38    20    21     1
    39    20    39     1
    40    20    40     1
    41    21    22     1
    42    21    23     1
    43    21    41     1
    44    22    23     1
    45    22    42     1
    46    22    43     1
