@<TRIPOS>MOLECULE
****
21 20 1 0 0
SMALL
USER_CHARGES


@<TRIPOS>ATOM
      1 C           4.5614   -1.1584   -0.6753 C.2       1     ****    0.0000
      2 O           3.6766   -0.0709   -0.6753 O.3       1     ****    0.0000
      3 C           2.3798   -0.6036   -0.6753 C.3       1     ****    0.0000
      4 C           1.3640    0.5311   -0.6753 C.3       1     ****    0.0000
      5 O           1.5447    1.3192    0.4701 O.3       1     ****    0.0000
      6 C          -1.0732   -1.9015    1.9401 C.2       1     ****    0.0000
      7 C          -2.2066   -1.0792    1.4104 C.2       1     ****    0.0000
      8 C          -3.4689   -1.4656    1.6222 C.2       1     ****    0.0000
      9 C          -2.6886    2.0307   -0.5143 C.2       1     ****    0.0000
     10 C          -2.9686    0.7758    0.2525 C.2       1     ****    0.0000
     11 C          -1.9564    0.0415    0.7256 C.2       1     ****    0.0000
     12 N          -0.7611    0.4074    0.5250 N.pl3     1     ****    0.0000
     13 C          -4.3820    0.3432    0.4896 C.2       1     ****    0.0000
     14 C          -0.0448   -0.0476   -0.6753 C.3       1     ****    0.0000
     15 H           2.2363   -1.2293   -1.5845 H         1     ****    0.0000
     16 H           2.2361   -1.2299    0.2335 H         1     ****    0.0000
     17 H           1.5076    1.1574   -1.5841 H         1     ****    0.0000
     18 H           0.9015    2.0065    0.4339 H         1     ****    0.0000
     19 H          -0.2815    1.0357    1.2161 H         1     ****    0.0000
     20 H           0.0102   -1.1592   -0.6753 H         1     ****    0.0000
     21 H          -0.5866    0.2965   -1.5845 H         1     ****    0.0000
@<TRIPOS>BOND
     1     1     2     1
     2     2     3     1
     3     3     4     1
     4     3    15     1
     5     3    16     1
     6     4     5     1
     7     4    14     1
     8     4    17     1
     9     5    18     1
    10     6     7     1
    11     7     8     2
    12     7    11     1
    13     9    10     1
    14    10    11     2
    15    10    13     1
    16    11    12     1
    17    12    14     1
    18    12    19     1
    19    14    20     1
    20    14    21     1
