@<TRIPOS>MOLECULE
****
21 20 1 0 0
SMALL
USER_CHARGES


@<TRIPOS>ATOM
      1 C          -3.4754   -1.8041    2.8878 C.2       1     ****    0.0000
      2 O          -3.7975   -1.2000    1.6643 O.3       1     ****    0.0000
      3 C          -3.0774    0.0014    1.6035 C.3       1     ****    0.0000
      4 C          -3.3798    0.7034    0.3071 C.3       1     ****    0.0000
      5 C          -2.3202    0.8274   -0.7513 C.3       1     ****    0.0000
      6 O          -2.7619    1.9612    0.0062 O.3       1     ****    0.0000
      7 H          -3.3724    0.6537    2.4556 H         1     ****    0.0000
      8 H          -1.9874   -0.2163    1.6618 H         1     ****    0.0000
      9 H          -4.3989    0.3272    0.3473 H         1     ****    0.0000
     10 H          -2.5828    0.7353   -1.8021 H         1     ****    0.0000
     11 H          -1.3639    0.3520   -0.9541 H         1     ****    0.0000
     12 C           2.2904   -2.0575    0.5400 C.2       1     ****    0.0000
     13 C           2.6577   -1.4053   -0.7565 C.2       1     ****    0.0000
     14 C           2.3297   -1.9878   -1.9143 C.2       1     ****    0.0000
     15 C           3.3676    2.2146   -0.7565 C.2       1     ****    0.0000
     16 C           2.6330    0.9103   -0.7565 C.2       1     ****    0.0000
     17 C           3.3138   -0.2404   -0.7565 C.2       1     ****    0.0000
     18 N           4.5798   -0.2269   -0.7565 N.pl3     1     ****    0.0000
     19 C           1.1361    0.8943   -0.7565 C.2       1     ****    0.0000
     20 H           5.1144   -1.1305   -0.7565 H         1     ****    0.0000
     21 H           5.0950    0.6880   -0.7565 H         1     ****    0.0000
@<TRIPOS>BOND
     1     1     2     1
     2     2     3     1
     3     3     4     1
     4     3     7     1
     5     3     8     1
     6     4     5     1
     7     4     6     1
     8     4     9     1
     9     5     6     1
    10     5    10     1
    11     5    11     1
    12    12    13     1
    13    13    14     2
    14    13    17     1
    15    15    16     1
    16    16    17     2
    17    16    19     1
    18    17    18     1
    19    18    20     1
    20    18    21     1
